C10H8
APtclcactv04111818293D 0   0.00000     0.00000
 
 18 19  0  0  0  0  0  0  0  0999 V2000
   -2.4819   -0.0000    0.0005 C   0  0  0  0  0  0  0  0  0  0  0  0
   -1.9017   -1.2574   -0.0001 C   0  0  0  0  0  0  0  0  0  0  0  0
   -0.5600   -1.6026   -0.0003 C   0  0  0  0  0  0  0  0  0  0  0  0
    0.5406   -0.7412    0.0000 C   0  0  0  0  0  0  0  0  0  0  0  0
    1.8784   -1.1354    0.0003 C   0  0  0  0  0  0  0  0  0  0  0  0
    2.6688    0.0001    0.0001 C   0  0  0  0  0  0  0  0  0  0  0  0
    1.8783    1.1355   -0.0002 C   0  0  0  0  0  0  0  0  0  0  0  0
    0.5405    0.7412   -0.0002 C   0  0  0  0  0  0  0  0  0  0  0  0
   -0.5601    1.6025   -0.0005 C   0  0  0  0  0  0  0  0  0  0  0  0
   -1.9018    1.2574    0.0007 C   0  0  0  0  0  0  0  0  0  0  0  0
   -3.5619   -0.0001   -0.0041 H   0  0  0  0  0  0  0  0  0  0  0  0
   -2.5935   -2.0868   -0.0001 H   0  0  0  0  0  0  0  0  0  0  0  0
   -0.3390   -2.6598   -0.0004 H   0  0  0  0  0  0  0  0  0  0  0  0
    2.2367   -2.1542    0.0005 H   0  0  0  0  0  0  0  0  0  0  0  0
    3.7488    0.0002    0.0003 H   0  0  0  0  0  0  0  0  0  0  0  0
    2.2364    2.1544    0.0002 H   0  0  0  0  0  0  0  0  0  0  0  0
   -0.3390    2.6597   -0.0007 H   0  0  0  0  0  0  0  0  0  0  0  0
   -2.5936    2.0868    0.0002 H   0  0  0  0  0  0  0  0  0  0  0  0
  1  2  1  0  0  0  0
  2  3  2  0  0  0  0
  3  4  1  0  0  0  0
  4  5  2  0  0  0  0
  5  6  1  0  0  0  0
  6  7  2  0  0  0  0
  7  8  1  0  0  0  0
  4  8  1  0  0  0  0
  8  9  2  0  0  0  0
  9 10  1  0  0  0  0
  1 10  2  0  0  0  0
  1 11  1  0  0  0  0
  2 12  1  0  0  0  0
  3 13  1  0  0  0  0
  5 14  1  0  0  0  0
  6 15  1  0  0  0  0
  7 16  1  0  0  0  0
  9 17  1  0  0  0  0
 10 18  1  0  0  0  0
M  END
$$$$
