
 OpenBabel08141812533D

 19 18  0  0  0  0  0  0  0  0999 V2000
    0.9786   -0.0628   -0.0696 Fe  0  1  0  0  0  0  0  0  0  0  0  0
    1.0185    1.2132    1.3856 O   0  0  0  0  0  0  0  0  0  0  0  0
    0.3696    1.9292    1.1715 H   0  0  0  0  0  0  0  0  0  0  0  0
    0.6460    0.7732    2.1897 H   0  0  0  0  0  0  0  0  0  0  0  0
    1.0311    1.3946   -1.3414 O   0  0  0  0  0  0  0  0  0  0  0  0
    0.2376    1.9565   -1.1620 H   0  0  0  0  0  0  0  0  0  0  0  0
    1.7933    1.9815   -1.1043 H   0  0  0  0  0  0  0  0  0  0  0  0
   -0.9577    0.0086   -0.1129 O   0  0  0  0  0  0  0  0  0  0  0  0
   -1.2966   -0.9201   -0.1604 H   0  0  0  0  0  0  0  0  0  0  0  0
   -1.2669    0.3277    0.7708 H   0  0  0  0  0  0  0  0  0  0  0  0
    0.9793   -1.3257   -1.5257 O   0  0  0  0  0  0  0  0  0  0  0  0
    0.2780   -1.9985   -1.3406 H   0  0  0  0  0  0  0  0  0  0  0  0
    0.6614   -0.8409   -2.3284 H   0  0  0  0  0  0  0  0  0  0  0  0
    0.9203   -1.5311    1.1842 O   0  0  0  0  0  0  0  0  0  0  0  0
    1.6491   -1.3795    1.8358 H   0  0  0  0  0  0  0  0  0  0  0  0
    0.0868   -1.4442    1.7062 H   0  0  0  0  0  0  0  0  0  0  0  0
    2.9080   -0.1676   -0.0365 O   0  0  0  0  0  0  0  0  0  0  0  0
    3.2800    0.4263   -0.7337 H   0  0  0  0  0  0  0  0  0  0  0  0
    3.2082    0.2232    0.8220 H   0  0  0  0  0  0  0  0  0  0  0  0
  1  2  1  0  0  0  0
  1  5  1  0  0  0  0
  1  8  1  0  0  0  0
  1 11  1  0  0  0  0
  1 14  1  0  0  0  0
  1 17  1  0  0  0  0
  2  3  1  0  0  0  0
  2  4  1  0  0  0  0
  5  6  1  0  0  0  0
  5  7  1  0  0  0  0
  8  9  1  0  0  0  0
  8 10  1  0  0  0  0
 11 12  1  0  0  0  0
 11 13  1  0  0  0  0
 14 15  1  0  0  0  0
 14 16  1  0  0  0  0
 17 18  1  0  0  0  0
 17 19  1  0  0  0  0
M  CHG  1   1   3
M  END
$$$$
