16

C -1.363907 -0.094226 -0.368360
C -0.754414 1.141643 -0.172558
C 0.620139 1.220621 0.088701
C 1.496458 0.056526 0.173544
C 0.772841 -1.191136 -0.042013
C -0.602591 -1.257567 -0.302566
N 2.558860 0.178558 -0.860420
O 3.205998 1.179843 -0.653084
O 3.327934 -0.749917 -0.756118
O 2.089850 0.023280 1.455292
H 1.371535 -0.058357 2.140102
H -2.428894 -0.150676 -0.570056
H -1.347983 2.049093 -0.221886
H 1.044255 2.210205 0.236969
H 1.318432 -2.130076 0.001695
H -1.077852 -2.221736 -0.453310
16

C -1.380049 -0.095180 -0.369970
C -0.771886 1.141477 -0.166281
C 0.599563 1.218055 0.111533
C 1.461939 0.052684 0.205493
C 0.752371 -1.193519 -0.019331
C -0.619782 -1.260247 -0.296612
N 2.647600 0.188050 -0.935843
O 3.286259 1.187961 -0.705224
O 3.407881 -0.742887 -0.808317
O 2.061199 0.020118 1.480721
H 1.345579 -0.060949 2.168342
H -2.442448 -0.150791 -0.584820
H -1.363517 2.049660 -0.222981
H 1.032620 2.202372 0.264545
H 1.306315 -2.126597 0.029581
H -1.092983 -2.224126 -0.454907
16

C -1.384882 -0.095260 -0.374479
C -0.777804 1.141434 -0.165568
C 0.591626 1.217115 0.122006
C 1.449647 0.051209 0.219181
C 0.744506 -1.194652 -0.008946
C -0.625586 -1.261023 -0.296032
N 2.675508 0.191075 -0.959880
O 3.312797 1.190822 -0.725746
O 3.434161 -0.740492 -0.829067
O 2.054726 0.019220 1.490390
H 1.341717 -0.061612 2.180653
H -2.445699 -0.150388 -0.596871
H -1.368671 2.049829 -0.225627
H 1.026466 2.199783 0.279317
H 1.300109 -2.126307 0.044361
H -1.097960 -2.224672 -0.457762
16

C -1.389800 -0.095135 -0.382529
C -0.784563 1.141467 -0.165357
C 0.581559 1.215957 0.137285
C 1.434016 0.049266 0.237980
C 0.734514 -1.196343 0.006284
C -0.632241 -1.261901 -0.295898
N 2.703055 0.194298 -0.988564
O 3.339936 1.194244 -0.754485
O 3.461188 -0.737617 -0.857808
O 2.053359 0.018712 1.500477
H 1.346955 -0.062243 2.197295
H -2.448122 -0.149507 -0.616235
H -1.374412 2.050087 -0.229974
H 1.017608 2.196612 0.302242
H 1.291178 -2.126648 0.067409
H -1.103569 -2.225170 -0.462195
16

C -1.392578 -0.094255 -0.401968
C -0.791351 1.141941 -0.168409
C 0.567815 1.214436 0.163504
C 1.411468 0.046236 0.269134
C 0.720896 -1.199319 0.032402
C -0.638898 -1.262869 -0.299058
N 2.721993 0.197222 -1.022220
O 3.360512 1.197939 -0.795689
O 3.481712 -0.734499 -0.898921
O 2.065904 0.019165 1.510703
H 1.376394 -0.061960 2.223788
H -2.445771 -0.147141 -0.657313
H -1.379467 2.050841 -0.241078
H 1.003509 2.192095 0.344580
H 1.277011 -2.128410 0.109869
H -1.108489 -2.225341 -0.473396
16

C -1.380619 -0.090332 -0.460051
C -0.792627 1.144664 -0.181309
C 0.544316 1.212339 0.230449
C 1.367977 0.039457 0.345864
C 0.697813 -1.207334 0.098886
C -0.639856 -1.264283 -0.312328
N 2.682047 0.197122 -1.070992
O 3.328602 1.200614 -0.881884
O 3.449819 -0.732347 -0.984820
O 2.138848 0.024140 1.512260
H 1.512604 -0.056564 2.280302
H -2.417516 -0.138984 -0.774464
H -1.376096 2.054112 -0.275446
H 0.973332 2.183128 0.456231
H 1.246868 -2.135250 0.221380
H -1.104852 -2.224402 -0.508146
16

C -1.267325 -0.073070 -0.645417
C -0.737079 1.156899 -0.236320
C 0.498126 1.208013 0.421360
C 1.261301 0.018786 0.608501
C 0.653097 -1.229244 0.288258
C -0.583241 -1.263327 -0.368472
N 2.402181 0.181061 -1.120338
O 3.061315 1.192931 -1.069598
O 3.183777 -0.739550 -1.170596
O 2.329809 0.038425 1.494150
H 1.929550 -0.036242 2.399030
H -2.228370 -0.106857 -1.145374
H -1.294175 2.069798 -0.412069
H 0.884605 2.160011 0.767406
H 1.158953 -2.156817 0.531471
H -1.021863 -2.214739 -0.646063
16

C -1.233440 -0.066281 -0.729563
C -0.722355 1.160638 -0.288822
C 0.472415 1.204926 0.439343
C 1.204685 0.011349 0.680653
C 0.627126 -1.231370 0.306520
C -0.568716 -1.259423 -0.420744
N 2.439156 0.180241 -1.068081
O 3.097962 1.191151 -1.004171
O 3.220441 -0.740802 -1.104754
O 2.271045 0.031094 1.562982
H 1.869266 -0.043586 2.467003
H -2.162618 -0.094934 -1.286054
H -1.261641 2.076614 -0.498518
H 0.846543 2.154535 0.803797
H 1.120442 -2.160134 0.568446
H -0.989652 -2.207938 -0.732107
16

C -1.232797 -0.066099 -0.732239
C -0.724602 1.159815 -0.286774
C 0.459919 1.201359 0.457292
C 1.172316 0.006991 0.723533
C 0.614295 -1.231452 0.324712
C -0.571133 -1.259165 -0.418589
N 2.455830 0.182655 -1.093273
O 3.114197 1.193888 -1.040479
O 3.236984 -0.737329 -1.140929
O 2.263128 0.030268 1.569005
H 1.888921 -0.043332 2.484759
H -2.152907 -0.093373 -1.302961
H -1.255666 2.077269 -0.508735
H 0.836309 2.150730 0.818880
H 1.109749 -2.159388 0.583925
H -0.983883 -2.206757 -0.742198
16

C -1.239011 -0.066605 -0.730490
C -0.733202 1.157977 -0.280446
C 0.440927 1.195873 0.479388
C 1.131890 0.001881 0.770811
C 0.594775 -1.230909 0.347271
C -0.579977 -1.259186 -0.412035
N 2.505310 0.188393 -1.139062
O 3.163171 1.199593 -1.095814
O 3.285838 -0.730657 -1.196594
O 2.242391 0.028161 1.582865
H 1.892899 -0.044362 2.508341
H -2.149763 -0.092494 -1.315423
H -1.255156 2.077148 -0.514805
H 0.820740 2.144921 0.837088
H 1.093479 -2.157673 0.602821
H -0.983651 -2.205982 -0.747983
16

C -1.246627 -0.067282 -0.727045
C -0.742983 1.156334 -0.272914
C 0.423387 1.191576 0.498566
C 1.101178 -0.001919 0.804847
C 0.576839 -1.231019 0.366812
C -0.589956 -1.259656 -0.404307
N 2.562451 0.194905 -1.190797
O 3.219907 1.205996 -1.151626
O 3.342532 -0.723648 -1.252634
O 2.219146 0.025577 1.602238
H 1.880201 -0.046438 2.531652
H -2.150571 -0.092173 -1.322146
H -1.258875 2.076661 -0.515189
H 0.804728 2.140225 0.855151
H 1.076918 -2.157087 0.621427
H -0.987615 -2.205972 -0.748103
16

C -1.254226 -0.067982 -0.723126
C -0.752883 1.154914 -0.265009
C 0.406828 1.188238 0.516386
C 1.075955 -0.005041 0.832541
C 0.559991 -1.231801 0.384906
C -0.600021 -1.260394 -0.396231
N 2.621630 0.201881 -1.248933
O 3.278936 1.212620 -1.206558
O 3.401541 -0.716660 -1.307783
O 2.195482 0.022771 1.625239
H 1.859520 -0.049056 2.555752
H -2.152551 -0.092053 -1.326540
H -1.264411 2.076046 -0.513011
H 0.788243 2.136507 0.873636
H 1.060011 -2.157575 0.640334
H -0.993384 -2.206336 -0.745673
16

C -0.943036 -0.045220 -0.787276
C -0.525784 1.166345 -0.226766
C 0.462744 1.176347 0.762906
C 1.039851 -0.027071 1.190692
C 0.614836 -1.240403 0.632610
C -0.373835 -1.248124 -0.356939
N 2.340436 0.243766 -2.343209
O 2.767018 1.212144 -1.764384
O 2.891790 -0.716522 -1.865065
O 1.999023 -0.019467 2.169253
H 1.501591 -0.096853 3.023978
H -1.708273 -0.052114 -1.552650
H -0.968764 2.096582 -0.558209
H 0.781169 2.116269 1.195685
H 1.051170 -2.174047 0.964378
H -0.699278 -2.185553 -0.789075
