14

C 0.933005 -0.043714 -0.092653
C 2.459849 -0.037832 -0.083533
C 3.005765 0.823342 1.063544
C 4.532609 0.828862 1.072930
H 0.568335 -0.673412 -0.931395
H 0.542990 0.987987 -0.226524
H 0.542167 -0.459633 0.860611
H 2.821368 0.363549 -1.055652
H 2.820321 -1.083624 0.031271
H 2.644110 0.422109 2.035665
H 2.645430 1.869174 0.948598
H 4.922260 -0.202943 1.207112
H 4.897283 1.458584 1.911651
H 4.923805 1.244449 0.119675
14

C 1.789048 -0.501040 0.247480
C 2.388652 0.622656 -0.566715
C 3.152425 1.401225 0.472869
C 3.655408 0.361883 1.447386
H 0.969499 -0.884586 -0.396552
H 1.332695 -0.122460 1.230640
H 2.393925 -1.426521 0.407550
H 1.670639 1.331340 -1.034159
H 3.009497 0.137835 -1.351588
H 2.442153 2.018316 1.071145
H 3.904971 2.077184 0.013054
H 2.931687 -0.242442 2.150050
H 4.181230 1.003762 2.186974
H 4.437471 -0.280249 0.983165
14

C 2.242166 -0.394117 0.439377
C 2.499733 0.603204 -0.691708
C 3.048077 1.537099 0.373955
C 3.369654 0.272503 1.228233
H 1.155806 -0.111330 0.554100
H 1.815134 -0.115318 1.559222
H 2.219048 -1.499040 0.209376
H 1.729079 0.944745 -1.416368
H 3.363736 0.202206 -1.277181
H 2.234563 2.090014 0.904916
H 3.836770 2.253137 0.060099
H 2.678945 -0.564223 1.917886
H 3.792893 0.473548 2.240910
H 4.273695 -0.195529 0.758484
14

C 2.244514 -0.363686 0.350492
C 2.541431 0.619347 -0.774945
C 3.054212 1.561314 0.303231
C 3.397544 0.324206 1.161853
H 1.168873 -0.026365 0.440616
H 1.730213 -0.381893 2.093004
H 2.242663 -1.453930 0.124681
H 1.796951 0.940734 -1.535739
H 3.432172 0.226081 -1.325457
H 2.214312 2.093288 0.815353
H 3.829971 2.298746 0.006968
H 2.503965 -0.805030 2.286129
H 3.776138 0.599817 2.176213
H 4.326339 -0.135730 0.738902
14

C 2.216150 -0.328811 0.356442
C 2.547847 0.615847 -0.794069
C 3.084580 1.567792 0.261528
C 3.387626 0.340325 1.152445
H 1.168229 0.061895 0.512420
H 1.778504 -0.519539 2.180785
H 2.181817 -1.415910 0.118083
H 1.814328 0.930044 -1.567487
H 3.432231 0.186239 -1.327616
H 2.243826 2.127467 0.743565
H 3.874874 2.293127 -0.025856
H 2.536579 -0.909931 2.304653
H 3.665292 0.674801 2.181828
H 4.327416 -0.126446 0.764580
14

C 2.197426 -0.309012 0.360216
C 2.552777 0.617062 -0.801105
C 3.098123 1.572639 0.243866
C 3.379675 0.349107 1.148635
H 1.165290 0.102360 0.552980
H 1.818678 -0.601826 2.217839
H 2.148757 -1.393082 0.110365
H 1.828446 0.925768 -1.584851
H 3.436197 0.170453 -1.322719
H 2.254376 2.144658 0.706933
H 3.895320 2.293953 -0.034336
H 2.568809 -0.977150 2.299555
H 3.587938 0.720103 2.181737
H 4.327488 -0.118134 0.782184
14

C 2.061543 -0.192984 0.434399
C 2.594019 0.580892 -0.791724
C 3.130635 1.596877 0.191414
C 3.300424 0.420882 1.178334
H 1.091630 0.307827 0.691059
H 2.081497 -0.933499 2.230696
H 1.928289 -1.254268 0.116995
H 1.939146 0.848489 -1.647535
H 3.470426 0.026297 -1.218429
H 2.269149 2.231309 0.527700
H 3.964408 2.291135 -0.044596
H 2.835521 -1.228215 2.094755
H 3.317702 0.857186 2.205058
H 4.274911 -0.055028 0.893174
14

C 2.062756 -0.192303 0.432203
C 2.594302 0.582092 -0.793670
C 3.130938 1.598669 0.189953
C 3.299721 0.423169 1.177227
H 1.093150 0.307937 0.690992
H 2.082432 -0.938996 2.234793
H 1.928052 -1.254908 0.120069
H 1.939187 0.850015 -1.649178
H 3.470579 0.027370 -1.220279
H 2.269493 2.233041 0.526193
H 3.964986 2.292534 -0.046201
H 2.833214 -1.231432 2.100233
H 3.316996 0.854316 2.206068
H 4.273496 -0.054605 0.892897
14

C 2.063378 -0.191966 0.431096
C 2.594458 0.582702 -0.794660
C 3.131070 1.599579 0.189217
C 3.299366 0.424311 1.176667
H 1.093926 0.307978 0.690957
H 2.082852 -0.941714 2.236857
H 1.927929 -1.255248 0.121701
H 1.939238 0.850796 -1.650027
H 3.470711 0.027983 -1.221224
H 2.269632 2.233909 0.525430
H 3.965228 2.293263 -0.047054
H 2.832034 -1.233025 2.103010
H 3.316718 0.852763 2.206602
H 4.272760 -0.054431 0.892730
14

C 2.063691 -0.191797 0.430541
C 2.594540 0.583007 -0.795157
C 3.131131 1.600036 0.188849
C 3.299189 0.424882 1.176384
H 1.094316 0.307999 0.690937
H 2.083055 -0.943068 2.237892
H 1.927863 -1.255416 0.122525
H 1.939268 0.851184 -1.650455
H 3.470786 0.028295 -1.221696
H 2.269695 2.234341 0.525051
H 3.965341 2.293632 -0.047483
H 2.831440 -1.233821 2.104403
H 3.316595 0.851974 2.206869
H 4.272390 -0.054347 0.892641
14

C 2.063848 -0.191712 0.430263
C 2.594582 0.583160 -0.795406
C 3.131160 1.600265 0.188664
C 3.299101 0.425168 1.176243
H 1.094511 0.308010 0.690928
H 2.083155 -0.943744 2.238410
H 1.927826 -1.255500 0.122944
H 1.939287 0.851380 -1.650670
H 3.470828 0.028456 -1.221931
H 2.269722 2.234556 0.524858
H 3.965394 2.293818 -0.047701
H 2.831143 -1.234219 2.105100
H 3.316538 0.851571 2.207004
H 4.272204 -0.054308 0.892595
14

C 2.063925 -0.191668 0.430123
C 2.594604 0.583236 -0.795530
C 3.131173 1.600379 0.188573
C 3.299058 0.425311 1.176171
H 1.094607 0.308016 0.690924
H 2.083207 -0.944079 2.238669
H 1.927806 -1.255540 0.123151
H 1.939297 0.851477 -1.650776
H 3.470851 0.028535 -1.222045
H 2.269733 2.234661 0.524763
H 3.965419 2.293909 -0.047809
H 2.830993 -1.234418 2.105445
H 3.316513 0.851372 2.207069
H 4.272113 -0.054289 0.892572
14

C 2.063964 -0.191647 0.430052
C 2.594616 0.583274 -0.795592
C 3.131180 1.600436 0.188526
C 3.299036 0.425383 1.176135
H 1.094655 0.308019 0.690924
H 2.083232 -0.944245 2.238798
H 1.927796 -1.255563 0.123260
H 1.939304 0.851527 -1.650829
H 3.470864 0.028578 -1.222104
H 2.269738 2.234713 0.524712
H 3.965431 2.293956 -0.047865
H 2.830918 -1.234517 2.105617
H 3.316499 0.851266 2.207105
H 4.272066 -0.054281 0.892561
14

C 2.063984 -0.191635 0.430016
C 2.594622 0.583294 -0.795623
C 3.131183 1.600465 0.188502
C 3.299026 0.425420 1.176116
H 1.094679 0.308020 0.690925
H 2.083246 -0.944326 2.238862
H 1.927790 -1.255575 0.123316
H 1.939308 0.851553 -1.650855
H 3.470871 0.028600 -1.222132
H 2.269740 2.234739 0.524686
H 3.965435 2.293978 -0.047894
H 2.830881 -1.234566 2.105701
H 3.316492 0.851212 2.207124
H 4.272044 -0.054278 0.892556
14

C 2.363697 -0.266621 0.157456
C 2.632788 0.717495 -0.994404
C 3.146333 1.687559 0.084128
C 3.517381 0.434342 0.896184
H 1.406435 0.039427 0.650678
H 1.443141 -0.823409 3.279998
H 2.325639 -1.366317 0.011062
H 1.856071 1.000718 -1.735175
H 3.519438 0.341002 -1.564869
H 2.255433 2.158616 0.571740
H 3.873221 2.497505 -0.134626
H 1.835561 -1.398367 3.150807
H 3.605428 0.441262 2.002687
H 4.478733 0.033689 0.485631
