22

C 3.162231 0.296402 0.705085
O 3.291094 -0.468832 1.897238
C 3.829978 -1.715683 1.627757
C 5.225875 -1.901526 1.608738
C 5.749250 -3.182014 1.326771
C 4.897484 -4.262186 1.062901
C 3.503112 -4.059808 1.082837
C 2.978160 -2.797074 1.362494
N 5.473346 -5.550264 0.780232
O 5.053875 -6.336117 1.596044
O 5.076191 -5.913827 -0.300692
N 6.087996 -0.781735 1.886075
O 6.841307 -0.644705 0.951723
O 6.762525 -1.053882 2.849950
O 2.258838 -0.256095 -0.225415
H 2.736629 -0.955323 -0.744617
H 3.481483 1.357824 0.660852
H 2.509859 1.098928 1.094035
H 4.156428 0.295160 0.202178
H 6.821844 -3.335620 1.312938
H 2.827430 -4.881882 0.881518
H 1.904716 -2.655893 1.374115
22

C 3.158240 0.351394 0.637054
O 3.281740 -0.509618 1.982048
C 3.825271 -1.742603 1.685674
C 5.220965 -1.914544 1.648771
C 5.752455 -3.184471 1.335975
C 4.906637 -4.266483 1.059563
C 3.510690 -4.075651 1.096576
C 2.978821 -2.822753 1.406655
N 5.489904 -5.543524 0.744018
O 5.076001 -6.352602 1.539746
O 5.093763 -5.881537 -0.345512
N 6.074979 -0.791663 1.937892
O 6.812555 -0.626234 0.995635
O 6.766913 -1.077210 2.885421
O 2.228050 -0.175509 -0.277512
H 2.616716 -1.002568 -0.664674
H 3.568789 1.378006 0.546488
H 2.553174 1.191468 1.025379
H 4.143757 0.257882 0.130268
H 6.826108 -3.328326 1.307675
H 2.839481 -4.898728 0.884696
H 1.904641 -2.688875 1.430925
22

C 3.155228 0.371745 0.618205
O 3.279262 -0.522528 2.007944
C 3.824114 -1.751892 1.703038
C 5.219654 -1.919863 1.658309
C 5.752651 -3.186853 1.336153
C 4.907906 -4.269368 1.058055
C 3.511681 -4.081894 1.102888
C 2.978618 -2.831826 1.422243
N 5.492447 -5.543436 0.733020
O 5.085650 -6.357108 1.527722
O 5.090273 -5.877624 -0.355485
N 6.072119 -0.796260 1.949028
O 6.804654 -0.624101 1.004048
O 6.769427 -1.084896 2.891671
O 2.234742 -0.158161 -0.303409
H 2.610611 -1.008187 -0.650926
H 3.575965 1.393263 0.516901
H 2.548014 1.210390 1.007358
H 4.144593 0.267888 0.122000
H 6.826483 -3.328015 1.301799
H 2.841243 -4.905294 0.889836
H 1.904315 -2.700129 1.452362
22

C 3.165562 0.395735 0.575068
O 3.264018 -0.542343 2.014615
C 3.817697 -1.767524 1.710282
C 5.214166 -1.926318 1.676259
C 5.757860 -3.188644 1.353815
C 4.922097 -4.275516 1.065539
C 3.524333 -4.096751 1.099725
C 2.981026 -2.850976 1.419021
N 5.517157 -5.544655 0.740314
O 5.106171 -6.364846 1.526119
O 5.128771 -5.875097 -0.354315
N 6.056611 -0.797690 1.976375
O 6.790029 -0.613770 1.034321
O 6.753918 -1.086368 2.919015
O 2.170592 -0.052303 -0.309345
H 2.399371 -0.982927 -0.564264
H 3.687941 1.364397 0.434449
H 2.654580 1.286921 0.986494
H 4.118464 0.186561 0.042844
H 6.832813 -3.322741 1.327157
H 2.860731 -4.923494 0.878365
H 1.905742 -2.725803 1.440907
22

C 3.158651 0.428713 0.549359
O 3.263662 -0.559360 2.044114
C 3.818491 -1.781201 1.730097
C 5.214699 -1.936055 1.688085
C 5.759748 -3.195196 1.355494
C 4.924914 -4.282338 1.065146
C 3.526887 -4.106941 1.107634
C 2.982555 -2.864202 1.436928
N 5.521078 -5.548283 0.729692
O 5.117775 -6.373230 1.514492
O 5.125910 -5.874657 -0.363735
N 6.055669 -0.806899 1.990148
O 6.782977 -0.615195 1.044918
O 6.759366 -1.099345 2.926864
O 2.178681 -0.026858 -0.346535
H 2.389054 -0.974007 -0.550675
H 3.679528 1.393548 0.379590
H 2.642734 1.309188 0.979247
H 4.121299 0.209809 0.039422
H 6.834857 -3.326592 1.322495
H 2.863947 -4.933848 0.884919
H 1.907168 -2.741200 1.465057
22

C 3.143656 0.475849 0.518281
O 3.270799 -0.577384 2.076608
C 3.823992 -1.796815 1.751831
C 5.219524 -1.950215 1.700666
C 5.763314 -3.207107 1.357596
C 4.927203 -4.293135 1.066388
C 3.529303 -4.118718 1.118639
C 2.986506 -2.878026 1.458234
N 5.521890 -5.556868 0.720164
O 5.124054 -6.386341 1.502979
O 5.119901 -5.877451 -0.372490
N 6.061301 -0.821935 2.003533
O 6.780978 -0.623245 1.053920
O 6.772656 -1.119445 2.932847
O 2.194584 -0.006484 -0.395096
H 2.409790 -0.961188 -0.552735
H 3.624457 1.449778 0.291764
H 2.608485 1.321760 0.994524
H 4.132316 0.260544 0.058558
H 6.838274 -3.337626 1.317139
H 2.865361 -4.944714 0.895531
H 1.911305 -2.755383 1.493880
22

C 3.094869 0.561017 0.482478
O 3.306742 -0.588881 2.124470
C 3.844454 -1.809016 1.782773
C 5.237203 -1.972210 1.707816
C 5.765677 -3.231385 1.349459
C 4.916488 -4.309757 1.067442
C 3.520962 -4.125290 1.145105
C 2.993532 -2.882097 1.499772
N 5.495645 -5.576367 0.705757
O 5.109416 -6.404982 1.495251
O 5.068378 -5.892112 -0.378689
N 6.092128 -0.851523 2.001595
O 6.795439 -0.652228 1.039927
O 6.818502 -1.159285 2.915834
O 2.286195 -0.065856 -0.476054
H 2.691443 -0.953655 -0.649866
H 3.371141 1.577845 0.135160
H 2.449349 1.251190 1.066478
H 4.166105 0.446830 0.202687
H 6.838783 -3.369683 1.290095
H 2.847070 -4.945373 0.930149
H 1.920130 -2.751330 1.555120
22

C 3.055783 0.605442 0.462007
O 3.335569 -0.586776 2.146674
C 3.860309 -1.809212 1.798134
C 5.250853 -1.982721 1.711497
C 5.766724 -3.245124 1.346206
C 4.906937 -4.316636 1.070021
C 3.513531 -4.121735 1.160164
C 2.998670 -2.875128 1.521352
N 5.473278 -5.586817 0.700665
O 5.084506 -6.415055 1.489316
O 5.037209 -5.894910 -0.382469
N 6.116432 -0.868570 1.998653
O 6.806183 -0.668100 1.027476
O 6.854816 -1.185250 2.900159
O 2.355010 -0.129434 -0.504994
H 2.911838 -0.922117 -0.716484
H 3.203019 1.623685 0.046726
H 2.343936 1.173783 1.099942
H 4.158427 0.564311 0.304665
H 6.838196 -3.391298 1.276978
H 2.831583 -4.936316 0.949764
H 1.926842 -2.736172 1.586308
22

C 3.007486 0.639764 0.547758
O 3.323152 -0.661952 2.251679
C 3.842483 -1.869104 1.851651
C 5.231312 -2.036844 1.735047
C 5.742196 -3.284433 1.315784
C 4.878885 -4.347311 1.017838
C 3.487047 -4.158302 1.139861
C 2.977239 -2.925961 1.553516
N 5.439979 -5.602497 0.593348
O 5.064079 -6.459586 1.357022
O 4.987037 -5.871019 -0.493386
N 6.100057 -0.930937 2.043441
O 6.757865 -0.685013 1.060652
O 6.867970 -1.281060 2.907150
O 2.777916 -0.246790 -0.515606
H 3.540809 -0.145364 -1.142651
H 2.915940 1.663198 0.124179
H 2.078643 0.841330 1.126822
H 4.088168 0.841038 0.741350
H 6.812406 -3.425825 1.221623
H 2.802404 -4.966254 0.913267
H 1.906577 -2.791230 1.642417
22

C 2.997838 0.757663 0.500345
O 3.301347 -0.697570 2.259200
C 3.827552 -1.898624 1.856756
C 5.216717 -2.053190 1.727691
C 5.735759 -3.296987 1.307149
C 4.880055 -4.369222 1.020949
C 3.487693 -4.193597 1.156497
C 2.969857 -2.964955 1.571306
N 5.449292 -5.620302 0.595176
O 5.091684 -6.477799 1.367129
O 4.986229 -5.898569 -0.484823
N 6.077424 -0.937781 2.024163
O 6.720961 -0.686707 1.033268
O 6.859101 -1.278333 2.879318
O 2.860786 -0.211226 -0.504152
H 3.637374 -0.097131 -1.111673
H 2.881004 1.744793 0.002876
H 2.088179 0.843353 1.133857
H 4.046717 0.909944 0.844277
H 6.806343 -3.428191 1.202995
H 2.808869 -5.009086 0.939599
H 1.898868 -2.840632 1.670858
22

C 3.006231 0.869922 0.461660
O 3.270287 -0.740873 2.269659
C 3.808341 -1.934099 1.864022
C 5.198257 -2.070189 1.723055
C 5.730277 -3.307580 1.299824
C 4.886604 -4.391754 1.023027
C 3.493271 -4.234746 1.170974
C 2.962608 -3.012459 1.588431
N 5.468862 -5.635799 0.594256
O 5.130456 -6.496484 1.371297
O 4.999359 -5.922666 -0.480701
N 6.046449 -0.942779 2.010076
O 6.677081 -0.684247 1.012822
O 6.840766 -1.271517 2.858178
O 2.872856 -0.163640 -0.475609
H 3.649692 -0.084175 -1.088104
H 2.908913 1.831998 -0.086446
H 2.132606 0.923641 1.144192
H 4.030563 0.950148 0.886479
H 6.801564 -3.424514 1.186319
H 2.823628 -5.059763 0.961695
H 1.890977 -2.902575 1.697654
22

C 3.025440 0.960791 0.436914
O 3.214047 -0.800016 2.295310
C 3.768007 -1.982263 1.881737
C 5.155678 -2.084872 1.696859
C 5.704832 -3.312214 1.266374
C 4.880329 -4.419532 1.025872
C 3.488985 -4.296140 1.217953
C 2.941331 -3.083840 1.642672
N 5.479702 -5.652360 0.588372
O 5.188870 -6.514230 1.383158
O 4.982771 -5.960639 -0.468171
N 5.983957 -0.934112 1.947005
O 6.574241 -0.667977 0.927304
O 6.814185 -1.235649 2.770461
O 3.054620 -0.094689 -0.483902
H 3.877998 0.032907 -1.022914
H 2.928291 1.915061 -0.124594
H 2.112165 0.915327 1.063979
H 3.974312 1.053081 1.006118
H 6.774501 -3.403303 1.118981
H 2.834027 -5.139510 1.037295
H 1.871361 -2.999973 1.785977
22

C 3.207957 0.296871 -0.255561
O 3.483492 -0.825458 3.371255
C 3.896750 -1.847589 2.560154
C 5.232647 -1.914380 2.134038
C 5.637331 -2.977669 1.298034
C 4.721376 -3.957844 0.893269
C 3.383969 -3.872796 1.331428
C 2.979212 -2.823189 2.158857
N 5.174455 -5.024986 0.041044
O 4.957478 -6.072010 0.602675
O 4.506016 -5.015720 -0.964782
N 6.157640 -0.897549 2.562386
O 6.635264 -0.384197 1.578995
O 7.060928 -1.434850 3.157358
O 3.226473 -0.719704 -1.217456
H 3.496607 -1.544652 -0.737354
H 2.916668 1.250463 -0.741739
H 2.467743 0.064354 0.538872
H 4.211799 0.424907 0.198657
H 6.666051 -3.040273 0.963408
H 2.660248 -4.619985 1.030149
H 1.949546 -2.767896 2.489073
