23

C -0.447900 1.296081 -0.244130
C 0.960458 1.275261 -0.220716
C 1.644454 0.040220 -0.306261
C 3.156644 0.007860 -0.328532
C 0.906160 -1.155245 -0.465792
C -0.501214 -1.107348 -0.492372
C -1.181544 0.115170 -0.371358
N -2.616802 0.185952 -0.406081
O -2.981085 -0.182626 -1.497105
O -3.113749 -0.690692 0.499712
N 1.597439 -2.411081 -0.602926
O 1.310221 -2.882833 -1.677221
O 1.136344 -3.261471 0.345742
N 1.707084 2.500095 -0.093373
O 1.426789 3.000630 0.969653
O 1.299793 3.356871 -1.060814
O 0.158979 -0.218751 2.936537
H 1.044177 -0.580455 2.679428
H -0.974625 2.240002 -0.166972
H 3.586829 0.825017 0.287474
H 3.516800 0.117395 -1.371763
H 3.557705 -0.936863 0.089724
H -1.066858 -2.024091 -0.610155
23

C -0.028171 1.455961 -1.118169
C 1.065961 0.663067 -1.304338
C 1.375089 -0.406007 -0.352451
C 2.623753 -1.229992 -0.663116
C 0.570148 -0.671902 0.802869
C -0.605394 0.265447 0.896899
C -0.884406 1.253594 -0.003689
N -2.036578 2.092756 0.207219
O -1.647477 3.222678 0.382850
O -2.779771 2.096330 -0.925685
N 1.687701 -2.243509 1.588906
O 2.184026 -2.004095 2.666414
O 1.045010 -3.436796 1.667142
N 1.923152 0.893941 -2.444670
O 2.390597 2.004184 -2.350873
O 1.171014 0.865707 -3.571868
O -0.230417 -1.424277 2.509622
H -0.989895 -2.023376 2.273684
H -0.251928 2.250237 -1.823508
H 3.375997 -1.099112 0.143380
H 2.360115 -2.300569 -0.788603
H 3.146318 -0.957353 -1.598037
H -1.338745 0.242187 1.698723
23

C -0.336126 1.248791 -0.950759
C 0.909802 0.732290 -1.172827
C 1.533573 -0.121639 -0.147910
C 2.907604 -0.698428 -0.383288
C 0.827806 -0.459941 0.977995
C -0.496660 0.119602 1.200677
C -1.059483 0.950236 0.288654
N -2.376523 1.474131 0.532466
O -3.124834 0.976862 -0.274422
O -2.359015 2.807242 0.292178
N 0.406616 -2.635489 0.843299
O -0.354106 -2.832765 -0.073638
O 1.523986 -3.356363 0.581749
N 1.631535 1.024479 -2.387187
O 0.972608 0.635908 -3.322248
O 1.746145 2.369266 -2.506751
O 1.689614 -1.323681 2.400510
H 2.120416 -0.610347 2.941414
H -0.799830 1.887636 -1.696242
H 2.824346 -1.602142 -1.021925
H 3.560118 0.037266 -0.896459
H 3.415188 -0.972580 0.562603
H -1.036679 -0.141233 2.104812
23

C -0.092297 1.692394 -1.168216
C 0.905659 0.786542 -1.307250
C 0.982312 -0.378072 -0.368214
C 2.127348 -1.360090 -0.477529
C 0.076814 -0.481518 0.636725
C -1.019228 0.510687 0.762822
C -1.112400 1.542142 -0.092781
N -2.175947 2.497365 0.066127
O -1.676140 3.560811 0.344498
O -2.793305 2.647970 -1.130078
N 3.192043 -3.409015 2.420115
O 2.963901 -2.339748 2.929480
O 2.014556 -4.073867 2.367325
N 1.905056 0.930649 -2.338767
O 2.510545 1.956209 -2.136318
O 1.280678 1.060814 -3.534469
O 0.136915 -1.518110 1.537984
H -0.476974 -2.210795 1.181362
H -0.155878 2.541912 -1.842597
H 2.976465 -1.004310 0.142636
H 1.831574 -2.373437 -0.135908
H 2.472188 -1.466875 -1.524954
H -1.747784 0.397441 1.560706
