8

C -0.472823 -0.462837 -1.166853
C 0.533360 0.408365 -1.160784
H -1.482076 -0.133501 -0.942113
H -0.289860 -1.507560 -1.396086
H 0.350224 1.452995 -0.931061
H 1.542726 0.079183 -1.385032
Cl -0.796069 0.901992 2.396084
Cl 0.569088 -0.675725 2.478396
8

C -0.666666 -0.198290 -0.400496
C 0.658109 0.220109 -0.375360
H -1.165390 0.202835 -1.309453
H -0.721991 -1.308290 -0.436096
H 0.713612 1.330492 -0.355391
H 1.177359 -0.136369 -1.291402
Cl -1.577927 0.387213 1.022908
Cl 1.537465 -0.434790 1.037838
