16

C         -1.44563       -0.08550       -0.32810
C         -0.82842        1.16689       -0.30420
C          0.56325        1.26324       -0.36887
C          1.33384        0.09603       -0.45321
C          0.71650       -1.16250       -0.47167
C         -0.67597       -1.24795       -0.40749
N          2.79374        0.19424       -0.60299
O          3.28172        1.32217       -0.79885
O          3.43786       -0.86430       -0.71938
O          2.06153        0.25101        2.76148
H          1.75447       -0.58442        3.06388
H         -2.52703       -0.15623       -0.25284
H         -1.42590        2.06853       -0.20543
H          1.03818        2.23918       -0.31411
H          1.30902       -2.07247       -0.50823
H         -1.15650       -2.22184       -0.39406
