jjj.xyz
 OpenBabel08171800443D

 14 13  0  0  0  0  0  0  0  0999 V2000
    2.3828   -0.5206    0.2488 C   0  0  0  0  0  0  0  0  0  0  0  0
    3.7834   -0.3219   -0.2471 C   0  0  0  0  0  0  0  0  0  0  0  0
    3.6731    1.1625    0.1131 C   0  0  0  0  0  1  0  0  0  0  0  0
    2.1521    1.0294   -0.0734 C   0  0  0  0  0  0  0  0  0  0  0  0
    2.2772   -1.5913   -0.0543 H   0  0  0  0  0  0  0  0  0  0  0  0
    0.9256    0.4109    2.5109 H   0  0  0  0  0  0  0  0  0  0  0  0
    2.4178   -0.6296    1.3412 H   0  0  0  0  0  0  0  0  0  0  0  0
    4.3910   -0.4017   -1.1608 H   0  0  0  0  0  0  0  0  0  0  0  0
    3.4526   -0.4431   -1.3302 H   0  0  0  0  0  0  0  0  0  0  0  0
    3.8798    1.0138    1.2041 H   0  0  0  0  0  0  0  0  0  0  0  0
    3.8860    1.7541    1.0297 H   0  0  0  0  0  0  0  0  0  0  0  0
    1.5444    0.5237    2.8396 H   0  0  0  0  0  0  0  0  0  0  0  0
    1.5030    1.3982    0.7380 H   0  0  0  0  0  0  0  0  0  0  0  0
    1.9906    2.1124   -0.2984 H   0  0  0  0  0  0  0  0  0  0  0  0
  1  7  1  0  0  0  0
  2  1  1  0  0  0  0
  2  3  1  0  0  0  0
  3  4  1  0  0  0  0
  3 10  1  0  0  0  0
  3 11  1  0  0  0  0
  4  1  1  0  0  0  0
  4 13  1  0  0  0  0
  5  1  1  0  0  0  0
  6 12  1  0  0  0  0
  8  2  1  0  0  0  0
  9  2  1  0  0  0  0
 14  4  1  0  0  0  0
M  RAD  3   2   2   4   2  10   2
M  END
$$$$
