7

C 0.354649 -0.538523 -0.338017
F 2.637603 1.990782 0.316337
F 3.250668 1.018409 0.997170
H 1.386681 -0.849276 -0.600879
H 0.338986 -0.149789 0.700933
H -0.325824 -1.411130 -0.416823
H 0.019316 0.256627 -1.035162
7

C 0.581785 -0.411150 -0.191655
F 2.689570 1.266668 -0.287946
F 2.152808 1.215580 0.933819
H 1.620391 -0.652847 -0.541672
H 0.472022 -0.515060 0.908172
H -0.089941 -1.167221 -0.647376
H 0.235445 0.581130 -0.549780
7

C 0.615165 -0.373733 -0.174736
F 2.635996 1.212944 -0.306850
F 2.104951 1.163655 0.917259
H 1.652251 -0.639539 -0.545551
H 0.470046 -0.509887 0.918362
H -0.049425 -1.135149 -0.631999
H 0.233098 0.598808 -0.552924
7

C 0.651266 -0.326927 -0.154242
F 2.591049 1.156261 -0.321631
F 2.065277 1.112413 0.905300
H 1.686558 -0.621083 -0.562699
H 0.456035 -0.508574 0.925742
H -0.000917 -1.103890 -0.603148
H 0.212812 0.608900 -0.565762
7

C 0.682925 -0.259440 -0.135426
F 2.541310 1.115971 -0.325389
F 2.063967 1.009742 0.919718
H 1.725268 -0.578505 -0.591438
H 0.389870 -0.478188 0.916711
H 0.084918 -1.098754 -0.545954
H 0.173822 0.606275 -0.614661
7

C 0.691749 -0.203214 -0.116674
F 2.506213 1.095858 -0.335354
F 2.091585 0.911332 0.925924
H 1.735016 -0.531348 -0.631942
H 0.311914 -0.436569 0.904317
H 0.190743 -1.123444 -0.481201
H 0.134860 0.604484 -0.641510
7

C 0.694441 -0.154064 -0.099140
F 2.491550 1.059047 -0.327900
F 2.107217 0.818353 0.937363
H 1.731142 -0.492600 -0.674473
H 0.217499 -0.401272 0.876031
H 0.297464 -1.134609 -0.433563
H 0.122766 0.622246 -0.654757
7

C 0.720917 -0.114573 -0.077132
F 2.409314 1.041726 -0.289395
F 2.005562 0.758395 0.968116
H 1.774415 -0.405302 -0.720790
H 0.065385 -0.372553 0.783074
H 0.550768 -1.181721 -0.329860
H 0.135719 0.591128 -0.710453
7

C 0.732875 -0.048431 -0.053583
F 2.610475 0.568695 -0.170058
F 1.909509 0.846132 0.938167
H 1.551153 -0.158713 -1.034035
H 0.012729 -0.318981 0.748076
H 0.843221 -1.146621 -0.193379
H 0.002119 0.575019 -0.611628
7

C 0.751559 -0.031571 -0.046451
F 2.566117 0.536954 -0.186261
F 1.864813 0.828884 0.917591
H 1.566998 -0.157638 -1.023921
H 0.028508 -0.322845 0.744956
H 0.866507 -1.131286 -0.184270
H 0.017577 0.594601 -0.598084
7

C 0.769996 -0.019320 -0.042019
F 2.527702 0.514230 -0.200801
F 1.826677 0.809755 0.900763
H 1.580859 -0.151777 -1.013968
H 0.044323 -0.321156 0.742847
H 0.880726 -1.122141 -0.174820
H 0.031798 0.607509 -0.588443
7

C 0.787278 -0.010024 -0.038951
F 2.494388 0.497392 -0.214318
F 1.793596 0.790194 0.886248
H 1.594340 -0.143313 -1.004785
H 0.058843 -0.316939 0.741341
H 0.889179 -1.116718 -0.165042
H 0.044456 0.616507 -0.580934
7

C 0.845047 -0.001318 -0.034778
F 2.212188 0.724837 -0.422941
F 1.800899 0.486188 0.835729
H 1.838597 -0.280936 -0.738050
H 0.158399 -0.262953 0.799085
H 0.651460 -1.080959 -0.235896
H 0.155490 0.732241 -0.579588
7

C 0.354649 -0.538523 -0.338017
F 2.637603 1.990782 0.316337
F 3.250668 1.018409 0.997170
H 1.386681 -0.849276 -0.600879
H 0.338986 -0.149789 0.700933
H -0.325824 -1.411130 -0.416823
H 0.019316 0.256627 -1.035162
7

C 0.368190 -0.322207 -0.165246
F 3.331798 0.662798 -0.040375
F 2.223257 1.395389 0.612740
H 1.698683 -0.690464 -0.602374
H 0.311522 -0.296438 0.942900
H -0.343051 -1.090596 -0.532307
H 0.071680 0.658617 -0.591779
7

C 0.382351 -0.294125 -0.150043
F 3.317874 0.622716 -0.063407
F 2.145663 1.349351 0.596825
H 1.769176 -0.678846 -0.606238
H 0.300677 -0.284662 0.957220
H -0.313390 -1.072536 -0.525877
H 0.059729 0.675201 -0.584919
7

C 0.396415 -0.259386 -0.130588
F 3.314373 0.580316 -0.090705
F 2.074045 1.303763 0.580878
H 1.843291 -0.666611 -0.609500
H 0.274334 -0.276926 0.973508
H -0.272974 -1.053776 -0.521030
H 0.032597 0.689720 -0.579003
7

C 0.409369 -0.212770 -0.103485
F 3.324027 0.531177 -0.125049
F 2.013183 1.259648 0.564623
H 1.920413 -0.652690 -0.611735
H 0.223666 -0.273671 0.990850
H -0.210092 -1.034608 -0.519612
H -0.018484 0.700013 -0.572033
7

C 0.416319 -0.141916 -0.060278
F 3.349067 0.463314 -0.174446
F 1.968437 1.216862 0.547705
H 1.996456 -0.636390 -0.612187
H 0.131038 -0.272498 1.006246
H -0.089600 -1.014474 -0.526470
H -0.109638 0.702204 -0.557009
7

C 0.408950 0.054444 0.048336
F 3.357050 -0.009646 -0.410068
F 2.153816 0.678663 0.808478
H 1.864563 -0.476390 -1.007670
H -0.191857 0.508823 0.865923
H 0.103433 -1.009914 0.149650
H -0.033873 0.571119 -0.831088
7

C 0.405425 0.105788 0.131944
F 3.307334 -0.065910 -0.498863
F 2.047686 0.678107 0.824694
H 1.918376 -0.505393 -1.058792
H -0.333093 0.496801 0.863292
H 0.226676 -0.991713 0.175364
H 0.089675 0.599420 -0.814078
7

C 0.393855 0.133487 0.178243
F 3.287691 -0.099812 -0.554162
F 1.955375 0.678515 0.839594
H 1.981319 -0.528242 -1.101649
H -0.387505 0.500971 0.875909
H 0.283061 -0.973043 0.184043
H 0.148284 0.605225 -0.798419
7

C 0.381145 0.153778 0.212625
F 3.284324 -0.127626 -0.600882
F 1.872942 0.679389 0.853292
H 2.050931 -0.549443 -1.143124
H -0.422906 0.507879 0.890778
H 0.314151 -0.955103 0.192294
H 0.181492 0.608226 -0.781422
7

C 0.368042 0.170370 0.241030
F 3.292051 -0.153429 -0.644877
F 1.797221 0.681001 0.866701
H 2.125350 -0.569782 -1.184397
H -0.451500 0.514868 0.905176
H 0.331030 -0.938722 0.203316
H 0.199885 0.612795 -0.763390
7

C 0.354749 0.184719 0.265782
F 3.307591 -0.178882 -0.688200
F 1.726748 0.683995 0.880950
H 2.202221 -0.589403 -1.225508
H -0.477238 0.521068 0.918328
H 0.339207 -0.924013 0.217100
H 0.208802 0.619616 -0.744892
7

C 0.261823 0.258559 0.394511
F 3.457460 -0.368881 -0.989086
F 1.269428 0.824408 1.151541
H 2.696372 -0.718108 -1.508674
H -0.719031 0.467560 0.868806
H 0.417061 -0.838215 0.333129
H 0.278967 0.691776 -0.626667
