18

C          0.73440        1.26577       -0.20106
C         -0.73443        1.26580        0.22314
C         -1.45391        0.00224       -0.23993
C         -0.73651       -1.26276        0.22240
C          0.73229       -1.26491       -0.20187
C          1.48138       -0.00033        0.22632
Cl         1.74208       -0.00111        2.00012
H          1.23272        2.15905        0.19432
H          0.78007        1.34546       -1.29505
H         -1.23512        2.14588       -0.19659
H         -0.81053        1.35220        1.31343
H         -1.51940        0.00262       -1.33505
H         -2.48180        0.00298        0.13994
H         -1.23867       -2.14178       -0.19781
H         -0.81270       -1.34966        1.31264
H          0.77779       -1.34394       -1.29592
H          1.22915       -2.15927        0.19289
H          2.48094       -0.00101       -0.22078
