uo2.xyz
 OpenBabel08131801053D

  3  2  0  0  0  0  0  0  0  0999 V2000
    0.0000    0.0000   -1.5000 O   0  0  0  0  0  0  0  0  0  0  0  0
    0.0000    0.0000    0.0000 U   0  0  0  0  0  0  0  0  0  0  0  0
    0.0000    0.0000    1.5000 O   0  0  0  0  0  0  0  0  0  0  0  0
  1  2  4  0  0  0  0
  2  3  4  0  0  0  0
M  RAD  2   1   2   3   2
M  END
$$$$
