
 OpenBabel08121818303D

  3  2  0  0  0  0  0  0  0  0999 V2000
    1.0618   -0.0083    0.0843 O   0  0  0  0  0  0  0  0  0  0  0  0
    2.0297   -0.0106    0.0380 H   0  0  0  0  0  0  0  0  0  0  0  0
    0.7830   -0.0549   -0.8425 H   0  0  0  0  0  0  0  0  0  0  0  0
  1  2  1  0  0  0  0
  1  3  1  0  0  0  0
M  END
$$$$
